// -----------------------------
// NLS Name for the CAAAniCATalog Features
// -----------------------------
AeroDynamicSet = "Aero Dynamic Set";
AeroMeshPart  = "Aero Mesh Part";

AniEntityOnSolution= "Frequency Link";
AniSpeedLoad= "Linear Velocity";

