// -----------------------------
// Icon Name for the CAAAniCATalog Features
// -----------------------------
AeroDynamicSet.IconName ="I_AeroSet";
AeroMeshPart.IconName   = "I_AeroMP";


