// -----------------------------
// NLS Name for the CAAAniCATalog Features
// -----------------------------
AeroDynamicSet = "Set solution AeroDynamique";
AeroMeshPart  = "Mailleur Import AeroDynamique";

AniEntityOnSolution= "Solution en Frequences";
AniSpeedLoad= "Vitesse linéaire";



